Circuit: * C:\Users\User\Desktop\Other\Projects\Open Source Programmable Load\Open-Source-Programmable-Load\Electrical\Simulations\Programmable Load.asc

WARNING: Node NC_02 is floating.

WARNING: Less than two connections to node 3V3.  This node is used by V1.
Direct Newton iteration failed to find .op point.  (Use ".option noopiter" to skip.)
Starting Gmin stepping
Increasing initial diagonal Gmin to 100
Gmin = 100
Gmin = 10.7374
Gmin = 1.15292
Gmin = 0.123794
Gmin = 0.0132923
Gmin = 0.00142725
vernier = 0.5
vernier = 0.25
Gmin = 0.00044017
vernier = 0.125
vernier = 0.166667
Gmin = 0.000333898
vernier = 0.222222
vernier = 0.296296
Gmin = 0.000198842
vernier = 0.395061
Gmin = 8.68583e-005
vernier = 0.526748
vernier = 0.702331
Gmin = 2.31627e-005
vernier = 0.936441
vernier = 1
Gmin = 3.22846e-006
vernier = 0.5
Gmin = 6.01829e-007
vernier = 0.666667
vernier = 0.333333
vernier = 0.166667
Gmin = 2.64997e-007
vernier = 0.0833333
vernier = 0.0416667
vernier = 0.0208333
vernier = 0.0104167
vernier = 0.00520833
vernier = 0.00260417
vernier = 0.00130208
vernier = 0.000651042
vernier = 0.000488281
Gmin = 0
Gmin = 0
Gmin stepping failed

Starting source stepping with srcstepmethod=0
Source Step = 3.0303%
vernier = 0.25
Source Step = 2.27273%
Source Step = 3.55114%
Source Step = 4.02462%
Source Step = 4.49811%
Source Step = 4.97159%
Source Step = 5.44508%
vernier = 0.0234375
Source Step = 5.96591%
Source Step = 6.67614%
Source Step = 7.38636%
Source Step = 8.09659%
Source Step = 8.80682%
vernier = 0.0351563
Source Step = 9.55256%
Source Step = 10.6179%
Source Step = 11.6832%
Source Step = 12.7486%
Source Step = 13.8139%
Source Step = 14.8793%
vernier = 0.0527344
Source Step = 16.4773%
Source Step = 18.0753%
Source Step = 19.6733%
Source Step = 21.2713%
Source Step = 22.8693%
vernier = 0.0791016
Source Step = 25.1864%
Source Step = 27.5835%
Source Step = 29.9805%
Source Step = 32.3775%
Source Step = 34.7745%
vernier = 0.118652
Source Step = 38.1303%
Source Step = 41.7259%
Source Step = 45.3214%
Source Step = 48.9169%
Source Step = 52.5124%
vernier = 0.177979
Source Step = 57.3664%
Source Step = 62.7597%
Source Step = 68.153%
Source Step = 73.5463%
Source Step = 78.9395%
vernier = 0.266968
Source Step = 83.5744%
vernier = 0.00417137
Starting source stepping with srcstepmethod=1
Source Step = 3.0303%
Source Step = 33.3333%
Source Step = 63.6364%
Source Step = 93.9394%
Source Step = 96.9815%
Source stepping failed

Pseudo Transient succeeded in finding the operating point at 542.53 ms.
Direct Newton iteration failed to find .op point.  (Use ".option noopiter" to skip.)
Starting Gmin stepping
Gmin = 10
vernier = 0.5
vernier = 0.666667
Gmin = 3.04418
vernier = 0.888888
Gmin = 0.5164
vernier = 1
Gmin = 0.0567082
Gmin = 0.006089
Gmin = 0.000653801
vernier = 0.5
vernier = 0.25
vernier = 0.125
Gmin = 0.000424317
vernier = 0.166667
Gmin = 0.000293671
vernier = 0.222222
vernier = 0.296296
Gmin = 0.000159529
vernier = 0.395061
vernier = 0.526748
Gmin = 6.13603e-005
vernier = 0.702331
Gmin = 1.4173e-005
vernier = 0.936441
vernier = 1
Gmin = 1.64323e-006
vernier = 0.5
Gmin = 4.66881e-007
vernier = 0.666667
vernier = 0.333333
vernier = 0.166667
vernier = 0.0833333
vernier = 0.0416667
vernier = 0.0208333
vernier = 0.0104167
vernier = 0.00520833
Gmin = 3.43015e-007
vernier = 0.00260417
vernier = 0.00130208
vernier = 0.000651042
vernier = 0.000488281
Gmin = 0
Gmin stepping failed

Starting source stepping with srcstepmethod=0
Source Step = 3.0303%
vernier = 0.25
Source Step = 2.27273%
Source Step = 4.16667%
Source Step = 6.06061%
Source Step = 7.95455%
Source Step = 9.84848%
vernier = 0.09375
Source Step = 12.4053%
Source Step = 15.2462%
Source Step = 18.0871%
Source Step = 20.928%
Source Step = 23.7689%
vernier = 0.140625
Source Step = 27.4621%
Source Step = 31.7235%
Source Step = 35.9848%
Source Step = 40.2462%
Source Step = 44.5076%
vernier = 0.210938
Source Step = 49.8343%
Source Step = 56.2263%
Source Step = 62.6184%
Source Step = 69.0104%
Source Step = 75.4025%
vernier = 0.316406
Source Step = 83.0729%
Source Step = 85.0055%
Starting source stepping with srcstepmethod=1
Source Step = 3.0303%
Source Step = 33.3333%
Source Step = 63.6364%
Source Step = 93.9394%
Source Step = 96.9815%
Source stepping failed

Pseudo transient terminated at 101.719 s, solution accepted ready or not!
Direct Newton iteration failed to find .op point.  (Use ".option noopiter" to skip.)
Starting Gmin stepping
Gmin = 10
vernier = 0.5
vernier = 0.666667
Gmin = 3.04418
vernier = 0.888888
Gmin = 0.5164
vernier = 1
Gmin = 0.0567082
Gmin = 0.006089
Gmin = 0.000653801
vernier = 0.5
vernier = 0.25
vernier = 0.125
Gmin = 0.000680097
vernier = 0.166667
vernier = 0.222222
Gmin = 0.000438926
vernier = 0.296296
vernier = 0.395061
Gmin = 0.000221227
vernier = 0.526748
Gmin = 7.44185e-005
vernier = 0.702331
vernier = 0.936441
Gmin = 1.32548e-005
vernier = 1
Gmin = 1.47891e-006
vernier = 0.5
vernier = 0.25
vernier = 0.125
vernier = 0.0625
vernier = 0.03125
vernier = 0.015625
vernier = 0.0078125
Gmin = 9.46502e-007
vernier = 0.00390625
vernier = 0.00195313
vernier = 0.000976563
vernier = 0.000488281
Gmin = 0
Gmin stepping failed

Starting source stepping with srcstepmethod=0
Source Step = 3.0303%
vernier = 0.25
Source Step = 0.378788%
Source Step = 0.852273%
Source Step = 1.32576%
Source Step = 1.79924%
Source Step = 2.27273%
vernier = 0.0234375
Source Step = 2.91193%
Source Step = 3.62216%
Source Step = 4.33239%
Source Step = 5.04261%
Source Step = 5.75284%
vernier = 0.0351563
Source Step = 6.67614%
Source Step = 7.74148%
Source Step = 8.80682%
Source Step = 9.87216%
Source Step = 10.9375%
vernier = 0.0527344
Source Step = 12.2692%
Source Step = 13.8672%
Source Step = 15.4652%
Source Step = 17.0632%
Source Step = 18.6612%
vernier = 0.0791016
Source Step = 20.5788%
Source Step = 22.9759%
Source Step = 25.3729%
Source Step = 27.7699%
Source Step = 30.1669%
vernier = 0.118652
Source Step = 32.9235%
Source Step = 36.519%
Source Step = 40.1145%
Source Step = 43.71%
Source Step = 47.3056%
vernier = 0.177979
Source Step = 51.2607%
Source Step = 56.6539%
Source Step = 62.0472%
Source Step = 67.4405%
Source Step = 72.8338%
vernier = 0.266968
Source Step = 78.4968%
Source Step = 86.5867%
Source Step = 94.6766%
Source Step = 97.7103%
vernier = 0.0166855
Source Step = 97.5334%
Starting source stepping with srcstepmethod=1
Source Step = 3.0303%
Source stepping failed

Pseudo transient terminated at 100.242 s, solution accepted ready or not!
Early termination of direct N-R iteration.
Direct Newton iteration failed to find .op point.  (Use ".option noopiter" to skip.)
Starting Gmin stepping
Gmin = 10
vernier = 0.5
vernier = 0.666667
Gmin = 3.04418
vernier = 0.888888
Gmin = 0.5164
vernier = 1
vernier = 0.5
Gmin = 0.0886065
vernier = 0.25
vernier = 0.125
vernier = 0.0625
vernier = 0.03125
vernier = 0.015625
Gmin = 0.0553166
vernier = 0.0078125
vernier = 0.00390625
vernier = 0.00195313
vernier = 0.000976563
vernier = 0.000488281
Gmin = 0
Gmin stepping failed

Starting source stepping with srcstepmethod=0
Source Step = 3.0303%
vernier = 0.25
Source Step = 0.378788%
Source Step = 0.852273%
Source Step = 1.32576%
Source Step = 1.79924%
Source Step = 2.27273%
vernier = 0.0234375
Source Step = 2.91193%
Source Step = 3.62216%
Source Step = 4.33239%
Source Step = 5.04261%
Source Step = 5.75284%
vernier = 0.0351563
Source Step = 6.67614%
Source Step = 7.74148%
Source Step = 8.80682%
Source Step = 9.87216%
Source Step = 10.9375%
vernier = 0.0527344
Source Step = 12.2692%
Source Step = 13.8672%
Source Step = 15.4652%
Source Step = 17.0632%
Source Step = 18.6612%
vernier = 0.0791016
Source Step = 20.5788%
Source Step = 22.9759%
Source Step = 25.3729%
Source Step = 27.7699%
Source Step = 30.1669%
vernier = 0.118652
Source Step = 32.9235%
Source Step = 36.519%
Source Step = 40.1145%
Source Step = 43.71%
Source Step = 47.3056%
vernier = 0.177979
Source Step = 51.2607%
Source Step = 56.6539%
Source Step = 62.0472%
Source Step = 67.4405%
Source Step = 72.8338%
vernier = 0.266968
Source Step = 78.4968%
Source Step = 86.5867%
Source Step = 94.6766%
Source Step = 97.1036%
Source Step = 97.723%
Starting source stepping with srcstepmethod=1
Source Step = 3.0303%
Source stepping failed

Pseudo transient terminated at 101.332 s, solution accepted ready or not!
Early termination of direct N-R iteration.
Direct Newton iteration failed to find .op point.  (Use ".option noopiter" to skip.)
Starting Gmin stepping
Gmin = 10
vernier = 0.5
vernier = 0.666667
Gmin = 3.04418
vernier = 0.888888
Gmin = 0.5164
vernier = 1
Gmin = 0.0567082
Gmin = 0.006089
Gmin = 0.000653801
vernier = 0.5
vernier = 0.25
vernier = 0.125
Gmin = 0.000700706
vernier = 0.166667
vernier = 0.222222
Gmin = 0.000441813
vernier = 0.111111
vernier = 0.0555555
vernier = 0.0277778
Gmin = 0.00042104
vernier = 0.037037
vernier = 0.0493827
Gmin = 0.000383388
vernier = 0.0658435
Gmin = 0.000330962
vernier = 0.0877914
vernier = 0.117055
Gmin = 0.000258881
vernier = 0.156073
vernier = 0.208098
Gmin = 0.000175491
vernier = 0.277464
Gmin = 9.58062e-005
vernier = 0.369952
vernier = 0.493269
Gmin = 3.53903e-005
vernier = 0.657691
vernier = 0.876922
Gmin = 7.56909e-006
vernier = 1
Gmin = 8.97925e-007
vernier = 0.5
vernier = 0.25
vernier = 0.125
vernier = 0.0625
vernier = 0.03125
Gmin = 8.70405e-007
vernier = 0.015625
vernier = 0.0078125
vernier = 0.00390625
vernier = 0.00195313
Gmin = 8.71663e-007
vernier = 0.00260417
Gmin = 8.66572e-007
vernier = 0.00347222
vernier = 0.00462963
Gmin = 8.58092e-007
vernier = 0.00617283
vernier = 0.00823044
Gmin = 8.44745e-007
vernier = 0.0109739
Gmin = 8.24168e-007
vernier = 0.0146319
vernier = 0.0195092
Gmin = 7.90769e-007
vernier = 0.0260122
vernier = 0.034683
Gmin = 7.40345e-007
vernier = 0.046244
Gmin = 6.6755e-007
vernier = 0.0616586
vernier = 0.0822114
Gmin = 5.61411e-007
vernier = 0.109615
vernier = 0.146154
Gmin = 4.26572e-007
vernier = 0.194871
Gmin = 2.77779e-007
vernier = 0.259828
vernier = 0.346438
Gmin = 1.36588e-007
vernier = 0.461917
vernier = 0.615889
vernier = 0.307945
Gmin = 6.00477e-008
vernier = 0.153972
vernier = 0.0769862
vernier = 0.0384931
vernier = 0.0192465
vernier = 0.00962327
vernier = 0.00481163
vernier = 0.00240582
vernier = 0.00120291
Gmin = 6.00116e-008
vernier = 0.00160388
vernier = 0.0021385
Gmin = 5.97815e-008
vernier = 0.00285134
Gmin = 5.94099e-008
vernier = 0.00380178
vernier = 0.00506904
Gmin = 5.88063e-008
vernier = 0.00675872
vernier = 0.00901162
Gmin = 5.78625e-008
vernier = 0.0120155
Gmin = 5.63634e-008
vernier = 0.0160207
vernier = 0.0213609
Gmin = 5.39933e-008
vernier = 0.0106804
vernier = 0.00534022
vernier = 0.00267011
vernier = 0.00133505
vernier = 0.000667527
vernier = 0.000500645
Gmin = 0
Gmin = 0
Gmin stepping failed

Starting source stepping with srcstepmethod=0
Source Step = 3.0303%
vernier = 0.25
Source Step = 0.378788%
Source Step = 0.852273%
Source Step = 1.32576%
Source Step = 1.79924%
Source Step = 2.27273%
vernier = 0.0234375
Source Step = 2.91193%
Source Step = 3.62216%
Source Step = 4.33239%
Source Step = 5.04261%
Source Step = 5.75284%
vernier = 0.0351563
Source Step = 6.67614%
Source Step = 7.74148%
Source Step = 8.80682%
Source Step = 9.87216%
Source Step = 10.9375%
vernier = 0.0527344
Source Step = 12.2692%
Source Step = 13.8672%
Source Step = 15.4652%
Source Step = 17.0632%
Source Step = 18.6612%
vernier = 0.0791016
Source Step = 20.5788%
Source Step = 22.9759%
Source Step = 25.3729%
Source Step = 27.7699%
Source Step = 30.1669%
vernier = 0.118652
Source Step = 32.9235%
Source Step = 36.519%
Source Step = 40.1145%
Source Step = 43.71%
Source Step = 47.3056%
vernier = 0.177979
Source Step = 51.2607%
Source Step = 56.6539%
Source Step = 62.0472%
Source Step = 67.4405%
Source Step = 72.8338%
vernier = 0.266968
Source Step = 78.4968%
Source Step = 86.5867%
Source Step = 94.6766%
Source Step = 98.118%
Source Step = 98.1496%
Starting source stepping with srcstepmethod=1
Source Step = 3.0303%
Source stepping failed

Pseudo transient terminated at 101.365 s, solution accepted ready or not!

Date: Fri Jul 21 19:05:32 2023
Total elapsed time: 35.611 seconds.

tnom = 27
temp = 27
method = trap
totiter = 466479
traniter = 0
tranpoints = 0
accept = 0
rejected = 11048
matrix size = 315
fillins = 567
solver = Normal
Thread vector: 25.1/10.8[8] 0.0/0.0[8] 9.4/2.8[8] 1.1/1.7[1]  2592/500
Matrix Compiler1: 54.26 KB object code size  13.2/5.4/[1.6]
Matrix Compiler2: 36.19 KB object code size  5.3/4.8/[1.0]

