Circuit: * C:\Open-Source-Programmable-Load\Electrical\Simulations\Programmable Load.asc

WARNING: Less than two connections to node 3V3.  This node is used by V1.
Direct Newton iteration for .op point succeeded.

Date: Thu Jan 12 02:24:24 2023
Total elapsed time: 0.036 seconds.

tnom = 27
temp = 27
method = modified trap
totiter = 80
traniter = 73
tranpoints = 35
accept = 35
rejected = 0
matrix size = 21
fillins = 17
solver = Normal
Matrix Compiler1: 1.40 KB object code size
Matrix Compiler2: 1.88 KB object code size
