Circuit: * C:\Open-Source-Programmable-Load\Electrical\Simulations\Programmable Load.asc

WARNING: Node NC_02 is floating.

WARNING: Less than two connections to node 3V3.  This node is used by V1.
Direct Newton iteration failed to find .op point.  (Use ".option noopiter" to skip.)
Starting Gmin stepping
Gmin = 10
vernier = 0.5
vernier = 0.666667
Gmin = 3.04418
vernier = 0.888888
Gmin = 0.5164
vernier = 1
Gmin = 0.0567082
Gmin = 0.006089
Gmin = 0.000653801
vernier = 0.5
vernier = 0.25
vernier = 0.125
Gmin = 0.000424317
vernier = 0.0625
vernier = 0.03125
vernier = 0.015625
vernier = 0.0078125
Gmin = 0.000426671
vernier = 0.0104167
Gmin = 0.000416799
vernier = 0.0138889
vernier = 0.0185185
Gmin = 0.000400748
vernier = 0.0246913
vernier = 0.0329218
Gmin = 0.000376447
vernier = 0.0438957
Gmin = 0.000341212
vernier = 0.0585276
vernier = 0.0780367
Gmin = 0.000289474
vernier = 0.104049
vernier = 0.138732
Gmin = 0.000222996
vernier = 0.184976
Gmin = 0.000148344
vernier = 0.246634
vernier = 0.328846
Gmin = 7.55288e-005
vernier = 0.438461
vernier = 0.584614
Gmin = 2.63007e-005
vernier = 0.779486
Gmin = 5.23685e-006
vernier = 1
Gmin = 5.62302e-007
vernier = 0.5
vernier = 0.25
vernier = 0.125
vernier = 0.0625
Gmin = 2.79174e-007
vernier = 0.03125
vernier = 0.015625
vernier = 0.0078125
vernier = 0.00390625
vernier = 0.00195313
vernier = 0.000976563
vernier = 0.000488281
Gmin = 0
Gmin stepping failed

Starting source stepping with srcstepmethod=0
Source Step = 3.0303%
vernier = 0.25
Source Step = 2.27273%
Source Step = 3.55114%
Source Step = 4.02462%
Source Step = 4.49811%
Source Step = 4.97159%
Source Step = 5.44508%
vernier = 0.0234375
Source Step = 5.96591%
Source Step = 6.67614%
Source Step = 7.38636%
Source Step = 8.09659%
Source Step = 8.80682%
vernier = 0.0351563
Source Step = 9.55256%
Source Step = 10.6179%
Source Step = 11.6832%
Source Step = 12.7486%
Source Step = 13.8139%
Source Step = 14.8793%
vernier = 0.0527344
Source Step = 16.4773%
Source Step = 18.0753%
Source Step = 19.6733%
Source Step = 21.2713%
Source Step = 22.8693%
vernier = 0.0791016
Source Step = 25.1864%
Source Step = 27.5835%
Source Step = 29.9805%
Source Step = 32.3775%
Source Step = 34.7745%
vernier = 0.118652
Source Step = 38.1303%
Source Step = 41.7259%
Source Step = 45.3214%
Source Step = 48.9169%
Source Step = 52.5124%
vernier = 0.177979
Source Step = 57.3664%
Source Step = 62.7597%
Source Step = 68.153%
Source Step = 73.5463%
Source Step = 78.9395%
vernier = 0.266968
Source Step = 83.5744%
vernier = 0.00417137
Starting source stepping with srcstepmethod=1
Source Step = 3.0303%
Source Step = 33.3333%
Source Step = 63.6364%
Source Step = 93.9394%
Source Step = 96.9815%
Source stepping failed

Pseudo Transient succeeded in finding the operating point at 603.518 ms.
Direct Newton iteration failed to find .op point.  (Use ".option noopiter" to skip.)
Starting Gmin stepping
Gmin = 10
vernier = 0.5
vernier = 0.666667
Gmin = 3.04418
vernier = 0.888888
Gmin = 0.5164
vernier = 1
Gmin = 0.0567082
Gmin = 0.006089
Gmin = 0.000653801
vernier = 0.5
vernier = 0.25
vernier = 0.125
Gmin = 0.000424317
vernier = 0.166667
Gmin = 0.000293671
vernier = 0.222222
vernier = 0.296296
Gmin = 0.000159529
vernier = 0.395061
vernier = 0.526748
Gmin = 6.13603e-005
vernier = 0.702331
Gmin = 1.4173e-005
vernier = 0.936441
vernier = 1
Gmin = 1.64323e-006
vernier = 0.5
Gmin = 4.66881e-007
vernier = 0.666667
vernier = 0.333333
vernier = 0.166667
vernier = 0.0833333
vernier = 0.0416667
vernier = 0.0208333
vernier = 0.0104167
vernier = 0.00520833
Gmin = 3.43015e-007
vernier = 0.00260417
vernier = 0.00130208
vernier = 0.000651042
vernier = 0.000488281
Gmin = 0
Gmin stepping failed

Starting source stepping with srcstepmethod=0
Source Step = 3.0303%
vernier = 0.25
Source Step = 1.70455%
Source Step = 3.59848%
Source Step = 5.49242%
Source Step = 7.38636%
Source Step = 9.2803%
vernier = 0.09375
Source Step = 11.9318%
Source Step = 14.7727%
Source Step = 17.6136%
Source Step = 20.4545%
Source Step = 23.2955%
vernier = 0.140625
Source Step = 27.1307%
Source Step = 31.392%
Source Step = 35.6534%
Source Step = 39.9148%
Source Step = 44.1761%
vernier = 0.210938
Source Step = 49.7159%
Source Step = 56.108%
Source Step = 62.5%
Source Step = 68.892%
Source Step = 75.2841%
vernier = 0.316406
Source Step = 83.2741%
Source Step = 84.2517%
Starting source stepping with srcstepmethod=1
Source Step = 3.0303%
Source Step = 33.3333%
Source Step = 63.6364%
Source Step = 93.9394%
Source Step = 96.9815%
Source stepping failed

Pseudo transient terminated at 101.93 s, solution accepted ready or not!
Direct Newton iteration failed to find .op point.  (Use ".option noopiter" to skip.)
Starting Gmin stepping
Gmin = 10
vernier = 0.5
vernier = 0.666667
Gmin = 3.04418
vernier = 0.888888
Gmin = 0.5164
vernier = 1
Gmin = 0.0567082
Gmin = 0.006089
Gmin = 0.000653801
vernier = 0.5
vernier = 0.25
vernier = 0.125
vernier = 0.0625
Gmin = 0.000662995
vernier = 0.0833333
Gmin = 0.000553438
vernier = 0.111111
vernier = 0.148148
Gmin = 0.000412417
vernier = 0.074074
vernier = 0.037037
vernier = 0.0185185
Gmin = 0.000417927
vernier = 0.0246913
vernier = 0.0329218
Gmin = 0.000389786
vernier = 0.0438957
vernier = 0.0585276
Gmin = 0.000348859
vernier = 0.0780367
Gmin = 0.000293136
vernier = 0.104049
vernier = 0.138732
Gmin = 0.000219242
vernier = 0.184976
vernier = 0.246634
Gmin = 0.000138529
vernier = 0.328846
Gmin = 6.78781e-005
vernier = 0.438461
vernier = 0.584614
Gmin = 2.10729e-005
vernier = 0.779486
vernier = 1
Gmin = 3.5277e-006
vernier = 0.5
vernier = 0.25
vernier = 0.125
Gmin = 9.24765e-007
vernier = 0.0625
vernier = 0.03125
vernier = 0.015625
vernier = 0.0078125
vernier = 0.00390625
vernier = 0.00195313
vernier = 0.000976563
vernier = 0.000488281
Gmin = 0
Gmin stepping failed

Starting source stepping with srcstepmethod=0
Source Step = 3.0303%
vernier = 0.25
Source Step = 0.378788%
Source Step = 0.852273%
Source Step = 1.32576%
Source Step = 1.79924%
Source Step = 2.27273%
vernier = 0.0234375
Source Step = 2.91193%
Source Step = 3.62216%
Source Step = 4.33239%
Source Step = 5.04261%
Source Step = 5.75284%
vernier = 0.0351563
Source Step = 6.67614%
Source Step = 7.74148%
Source Step = 8.80682%
Source Step = 9.87216%
Source Step = 10.9375%
vernier = 0.0527344
Source Step = 12.2692%
Source Step = 13.8672%
Source Step = 15.4652%
Source Step = 17.0632%
Source Step = 18.6612%
vernier = 0.0791016
Source Step = 20.5788%
Source Step = 22.9759%
Source Step = 25.3729%
Source Step = 27.7699%
Source Step = 30.1669%
vernier = 0.118652
Source Step = 32.9235%
Source Step = 36.519%
Source Step = 40.1145%
Source Step = 43.71%
Source Step = 47.3056%
vernier = 0.177979
Source Step = 51.2607%
Source Step = 56.6539%
Source Step = 62.0472%
Source Step = 67.4405%
Source Step = 72.8338%
vernier = 0.266968
Source Step = 78.4968%
Source Step = 86.5867%
Source Step = 93.2609%
Source Step = 95.2834%
Source Step = 96.5%
Source Step = 96.5316%
Starting source stepping with srcstepmethod=1
Source Step = 3.0303%
Source stepping failed

Pseudo transient terminated at 101.535 s, solution accepted ready or not!
Early termination of direct N-R iteration.
Direct Newton iteration failed to find .op point.  (Use ".option noopiter" to skip.)
Starting Gmin stepping
Gmin = 10
vernier = 0.5
vernier = 0.666667
Gmin = 3.04418
vernier = 0.888888
Gmin = 0.5164
vernier = 1
Gmin = 0.0567082
Gmin = 0.006089
Gmin = 0.000653801
vernier = 0.5
vernier = 0.25
vernier = 0.125
Gmin = 0.000680097
vernier = 0.166667
vernier = 0.222222
Gmin = 0.000438926
vernier = 0.296296
vernier = 0.395061
Gmin = 0.000221227
vernier = 0.526748
Gmin = 7.44185e-005
vernier = 0.702331
vernier = 0.936441
Gmin = 1.32548e-005
vernier = 1
Gmin = 1.47891e-006
vernier = 0.5
vernier = 0.25
vernier = 0.125
vernier = 0.0625
vernier = 0.03125
vernier = 0.015625
vernier = 0.0078125
Gmin = 9.46502e-007
vernier = 0.00390625
vernier = 0.00195313
vernier = 0.000976563
vernier = 0.000488281
Gmin = 0
Gmin stepping failed

Starting source stepping with srcstepmethod=0
Source Step = 3.0303%
vernier = 0.25
Source Step = 0.378788%
Source Step = 0.733902%
Source Step = 0.852273%
Source Step = 0.970644%
Source Step = 1.08902%
Source Step = 1.20739%
vernier = 0.00585938
Source Step = 1.33168%
Source Step = 1.50923%
Source Step = 1.68679%
Source Step = 1.86435%
Source Step = 2.0419%
Source Step = 2.21946%
vernier = 0.00878906
Source Step = 2.4858%
Source Step = 2.75213%
Source Step = 3.01847%
Source Step = 3.2848%
Source Step = 3.55114%
vernier = 0.0131836
Source Step = 3.93732%
Source Step = 4.33683%
Source Step = 4.73633%
Source Step = 5.13583%
Source Step = 5.53533%
vernier = 0.0197754
Source Step = 6.09464%
Source Step = 6.69389%
Source Step = 7.29315%
Source Step = 7.8924%
Source Step = 8.49165%
vernier = 0.0296631
Source Step = 9.30065%
Source Step = 10.1995%
Source Step = 11.0984%
Source Step = 11.9973%
Source Step = 12.8962%
vernier = 0.0444946
Source Step = 14.0647%
Source Step = 15.413%
Source Step = 16.7614%
Source Step = 18.1097%
Source Step = 19.458%
vernier = 0.0667419
Source Step = 21.1434%
Source Step = 23.1659%
Source Step = 25.1884%
Source Step = 27.2109%
Source Step = 29.2333%
vernier = 0.100113
Source Step = 31.6603%
Source Step = 34.694%
Source Step = 37.7278%
Source Step = 40.7615%
Source Step = 43.7952%
vernier = 0.150169
Source Step = 47.284%
Source Step = 51.8346%
Source Step = 56.3852%
Source Step = 60.9358%
Source Step = 65.4864%
vernier = 0.225254
Source Step = 70.492%
Source Step = 77.3179%
Source Step = 84.1438%
Source Step = 90.9696%
Source Step = 96.601%
Source Step = 97.6275%
Source Step = 97.6542%
Starting source stepping with srcstepmethod=1
Source Step = 3.0303%
Source stepping failed

Pseudo transient terminated at 102.588 s, solution accepted ready or not!
Direct Newton iteration failed to find .op point.  (Use ".option noopiter" to skip.)
Starting Gmin stepping
Gmin = 10
vernier = 0.5
vernier = 0.666667
Gmin = 3.04418
vernier = 0.888888
Gmin = 0.5164
vernier = 1
Gmin = 0.0567082
Gmin = 0.006089
Gmin = 0.000653801
vernier = 0.5
vernier = 0.25
vernier = 0.125
vernier = 0.0625
Gmin = 0.000768289
vernier = 0.03125
vernier = 0.0416667
Gmin = 0.000720041
vernier = 0.0555555
vernier = 0.074074
Gmin = 0.000625859
vernier = 0.0987653
Gmin = 0.000502392
vernier = 0.131687
vernier = 0.0658435
vernier = 0.0329218
Gmin = 0.000423785
vernier = 0.0164609
vernier = 0.00823044
vernier = 0.0109739
Gmin = 0.000420593
vernier = 0.0146319
Gmin = 0.000406994
vernier = 0.0195092
vernier = 0.0260122
Gmin = 0.000385168
vernier = 0.034683
vernier = 0.046244
Gmin = 0.000352808
vernier = 0.0616586
Gmin = 0.000307404
vernier = 0.0822114
vernier = 0.109615
Gmin = 0.000244192
vernier = 0.146154
vernier = 0.194871
Gmin = 0.000169598
vernier = 0.259828
Gmin = 9.61154e-005
vernier = 0.346438
vernier = 0.461917
Gmin = 3.77143e-005
vernier = 0.615889
vernier = 0.821185
Gmin = 8.83533e-006
vernier = 1
Gmin = 1.09746e-006
vernier = 0.5
vernier = 0.25
vernier = 0.125
vernier = 0.0625
vernier = 0.03125
vernier = 0.015625
vernier = 0.0078125
vernier = 0.00390625
vernier = 0.00195313
Gmin = 1.09746e-006
vernier = 0.000976563
vernier = 0.000488281
Gmin = 0
Gmin stepping failed

Starting source stepping with srcstepmethod=0
Source Step = 3.0303%
vernier = 0.25
Source Step = 0.378788%
Source Step = 0.852273%
Source Step = 1.32576%
Source Step = 1.79924%
Source Step = 2.27273%
vernier = 0.0234375
Source Step = 2.91193%
Source Step = 3.62216%
Source Step = 4.33239%
Source Step = 5.04261%
Source Step = 5.75284%
vernier = 0.0351563
Source Step = 6.67614%
Source Step = 7.74148%
Source Step = 8.80682%
Source Step = 9.87216%
Source Step = 10.9375%
vernier = 0.0527344
Source Step = 12.2692%
Source Step = 13.8672%
Source Step = 15.4652%
Source Step = 17.0632%
Source Step = 18.6612%
vernier = 0.0791016
Source Step = 20.5788%
Source Step = 22.9759%
Source Step = 25.3729%
Source Step = 27.7699%
Source Step = 30.1669%
vernier = 0.118652
Source Step = 32.9235%
Source Step = 36.519%
Source Step = 40.1145%
Source Step = 43.71%
Source Step = 47.3056%
vernier = 0.177979
Source Step = 51.2607%
Source Step = 56.6539%
Source Step = 62.0472%
Source Step = 67.4405%
Source Step = 72.8338%
vernier = 0.266968
Source Step = 78.4968%
Source Step = 86.5867%
Source Step = 94.6766%
Source Step = 97.1036%
Source Step = 97.723%
Starting source stepping with srcstepmethod=1
Source Step = 3.0303%
Source stepping failed

Pseudo transient terminated at 100.976 s, solution accepted ready or not!
Direct Newton iteration failed to find .op point.  (Use ".option noopiter" to skip.)
Starting Gmin stepping
Gmin = 10
vernier = 0.5
vernier = 0.666667
Gmin = 3.04418
vernier = 0.888888
Gmin = 0.5164
vernier = 1
Gmin = 0.0567082
Gmin = 0.006089
Gmin = 0.000653801
vernier = 0.5
vernier = 0.25
vernier = 0.125
Gmin = 0.000700706
vernier = 0.166667
vernier = 0.222222
Gmin = 0.000441813
vernier = 0.111111
vernier = 0.0555555
vernier = 0.0277778
Gmin = 0.00042104
vernier = 0.037037
vernier = 0.0493827
Gmin = 0.000383388
vernier = 0.0658435
Gmin = 0.000330962
vernier = 0.0877914
vernier = 0.117055
Gmin = 0.000258881
vernier = 0.156073
vernier = 0.208098
Gmin = 0.000175491
vernier = 0.277464
Gmin = 9.58062e-005
vernier = 0.369952
vernier = 0.493269
Gmin = 3.53903e-005
vernier = 0.657691
vernier = 0.876922
Gmin = 7.56909e-006
vernier = 1
Gmin = 8.97925e-007
vernier = 0.5
vernier = 0.25
vernier = 0.125
vernier = 0.0625
vernier = 0.03125
Gmin = 8.70405e-007
vernier = 0.015625
vernier = 0.0078125
vernier = 0.00390625
vernier = 0.00195313
Gmin = 8.71663e-007
vernier = 0.00260417
Gmin = 8.66572e-007
vernier = 0.00347222
vernier = 0.00462963
Gmin = 8.58092e-007
vernier = 0.00617283
vernier = 0.00823044
Gmin = 8.44745e-007
vernier = 0.0109739
Gmin = 8.24168e-007
vernier = 0.0146319
vernier = 0.0195092
Gmin = 7.90769e-007
vernier = 0.0260122
vernier = 0.034683
Gmin = 7.40345e-007
vernier = 0.046244
Gmin = 6.6755e-007
vernier = 0.0616586
vernier = 0.0822114
Gmin = 5.61411e-007
vernier = 0.109615
vernier = 0.146154
Gmin = 4.26572e-007
vernier = 0.194871
Gmin = 2.77779e-007
vernier = 0.259828
vernier = 0.346438
Gmin = 1.36588e-007
vernier = 0.461917
vernier = 0.615889
vernier = 0.307945
Gmin = 6.00477e-008
vernier = 0.153972
vernier = 0.0769862
vernier = 0.0384931
vernier = 0.0192465
vernier = 0.00962327
vernier = 0.00481163
vernier = 0.00240582
Gmin = 5.99395e-008
vernier = 0.00320776
vernier = 0.00427701
Gmin = 5.9453e-008
vernier = 0.00570267
Gmin = 5.86955e-008
vernier = 0.00760356
vernier = 0.0101381
Gmin = 5.74459e-008
vernier = 0.0135174
vernier = 0.0180232
Gmin = 5.55091e-008
vernier = 0.024031
vernier = 0.0120155
vernier = 0.00600775
Gmin = 5.35489e-008
vernier = 0.00300387
vernier = 0.00150194
vernier = 0.000750968
vernier = 0.000563226
vernier = 0.00042242
Gmin = 0
Gmin stepping failed

Starting source stepping with srcstepmethod=0
Source Step = 3.0303%
vernier = 0.25
Source Step = 0.378788%
Source Step = 0.852273%
Source Step = 1.32576%
Source Step = 1.79924%
Source Step = 2.27273%
vernier = 0.0234375
Source Step = 2.91193%
Source Step = 3.62216%
Source Step = 4.33239%
Source Step = 5.04261%
Source Step = 5.75284%
vernier = 0.0351563
Source Step = 6.67614%
Source Step = 7.74148%
Source Step = 8.80682%
Source Step = 9.87216%
Source Step = 10.9375%
vernier = 0.0527344
Source Step = 12.2692%
Source Step = 13.8672%
Source Step = 15.4652%
Source Step = 17.0632%
Source Step = 18.6612%
vernier = 0.0791016
Source Step = 20.5788%
Source Step = 22.9759%
Source Step = 25.3729%
Source Step = 27.7699%
Source Step = 30.1669%
vernier = 0.118652
Source Step = 32.9235%
Source Step = 36.519%
Source Step = 40.1145%
Source Step = 43.71%
Source Step = 47.3056%
vernier = 0.177979
Source Step = 51.2607%
Source Step = 56.6539%
Source Step = 62.0472%
Source Step = 67.4405%
Source Step = 72.8338%
vernier = 0.266968
Source Step = 78.4968%
Source Step = 86.5867%
Source Step = 94.6766%
Source Step = 98.118%
Source Step = 98.1496%
Starting source stepping with srcstepmethod=1
Source Step = 3.0303%
Source stepping failed

Pseudo transient terminated at 102.119 s, solution accepted ready or not!

Date: Tue Jan 17 00:45:10 2023
Total elapsed time: 24.161 seconds.

tnom = 27
temp = 27
method = trap
totiter = 209396
traniter = 0
tranpoints = 0
accept = 0
rejected = 3918
matrix size = 315
fillins = 578
solver = Normal
Thread vector: 26.0/10.3[8] 0.0/0.0[8] 12.1/3.8[8] 1.0/3.3[1]  2592/500
Matrix Compiler1: 55.15 KB object code size  10.6/5.6/[1.6]
Matrix Compiler2: 36.43 KB object code size  5.6/3.8/[1.2]

