
**** 08/01/22 01:03:08 ******* PSpice 17.4.0 (Nov 2018) ******* ID# 0 ********

 ** Profile: "SCHEMATIC1-transient"  [ C:\Users\a0500607\Desktop\TLV9302_PSpice\tlv9302-pspicefiles\schematic1\transient.sim ] 


 ****     CIRCUIT DESCRIPTION


******************************************************************************




** Creating circuit file "transient.cir" 
** WARNING: THIS AUTOMATICALLY GENERATED FILE MAY BE OVERWRITTEN BY SUBSEQUENT SIMULATIONS

*Libraries: 
* Profile Libraries :
* Local Libraries :
.LIB "C:/Users/a0500607/Desktop/fixed_pspice/round1/name_reverted/tlv9302.lib" 
* From [PSPICE NETLIST] section of C:\cds_spb_home\cdssetup\OrCAD_PSpiceTIPSpice_Install\17.4.0\PSpice.ini file:

ERROR(ORPSIM-16276): Simulation cannot be completed because library C:/Users/a0500607/Desktop/fixed_pspice/round1/name_reverted/tlv9302.lib 
is not available.
.lib "nom_pspti.lib" 
.lib "nom.lib" 

*Analysis directives: 
.TRAN  0 1m 0 
.OPTIONS ADVCONV
.OPTIONS FILEMODELSEARCH
.PROBE64 V(alias(*)) I(alias(*)) W(alias(*)) D(alias(*)) NOISE(alias(*)) 
.INC "..\SCHEMATIC1.net" 



**** INCLUDING SCHEMATIC1.net ****
* source TLV9302
V_V1         VCC 0 20
V_V2         0 VEE 20
X_U1         VIN VO VCC VEE VO TLV9302
V_V3         VIN 0  
+SIN 0 1 1k 0 0 0

**** RESUMING transient.cir ****
.END
