
**** 12/31/22 00:34:48 ******* PSpice 17.4.0 (Nov 2018) ******* ID# 0 ********

 ** Profile: "SCHEMATIC1-bias"  [ C:\Open-Source-Programmable-Load\Electrical\Simulations\multi-stage programmable load-pspicefiles\s


 ****     CIRCUIT DESCRIPTION


******************************************************************************




** Creating circuit file "bias.cir" 
** WARNING: THIS AUTOMATICALLY GENERATED FILE MAY BE OVERWRITTEN BY SUBSEQUENT SIMULATIONS

*Libraries: 
* Profile Libraries :
* Local Libraries :
* From [PSPICE NETLIST] section of C:\cds_spb_home\cdssetup\OrCAD_PSpiceTIPSpice_Install\17.4.0\PSpice.ini file:
.lib "nom_pspti.lib" 
.lib "nom.lib" 

*Analysis directives: 
.TRAN  0 10us 0 0.01 SKIPBP 
.OPTIONS ADVCONV
.OPTIONS FILEMODELSEARCH
.PROBE64 V(alias(*)) I(alias(*)) W(alias(*)) D(alias(*)) NOISE(alias(*)) 
.INC "..\SCHEMATIC1.net" 



**** INCLUDING SCHEMATIC1.net ****
* source MULTI-STAGE PROGRAMMABLE LOAD
X_M1         VCC N15247 N15072 power_nmos_p PARAMS: BVDSS=30.0 IDSS=1u
+  VGS_TH=1.5 RDSON=11.3m GFS=55 CISS=1380p COSS=235p CRSS=150p RG=1.65 VSD=1
+  QG=24n V_QG=10 TRR=10.5n
X_U3         DAC1 N15095 5V 0 N15251 LMV321A
V_V1         VCC 0 30
R_R1         N15247 N15251  1 TC=0,0 
C_C1         N15095 N15251  100n  TC=0,0 
V_V3         DAC2 0 3.3
R_R2         N15072 N15095  4.7 TC=0,0 
R_R3         N15072 0  0.1 TC=0,0 
V_V4         5V 0 5
V_V8         DAC1 0 DC 0 AC 0
+PULSE 0 3.3 0 5u 5u 1.0000e-8 2.1000e-6

**** RESUMING bias.cir ****
.END

**** 12/31/22 00:34:48 ******* PSpice 17.4.0 (Nov 2018) ******* ID# 0 ********

 ** Profile: "SCHEMATIC1-bias"  [ C:\Open-Source-Programmable-Load\Electrical\Simulations\multi-stage programmable load-pspicefiles\s


 ****     Diode MODEL PARAMETERS


******************************************************************************




               X_M1.N_MOSFET.DBT               X_U3.Xe_n.DVN   X_U3.Xi_nn.DVNF 
          IS    1.000000E-06                  100.000000E-18  100.000000E-18 
           N    3.366624                                                     
          BV   30                                                            
          TT   10.500000E-09                                                 
         CJO  100.000000E-15                                                 
           M     .35                                                         
          KF   31.622780E-12  316.227800E-15 


               X_U3.Xi_np.DVNF 
          IS  100.000000E-18 
          KF  316.227800E-15 


**** 12/31/22 00:34:48 ******* PSpice 17.4.0 (Nov 2018) ******* ID# 0 ********

 ** Profile: "SCHEMATIC1-bias"  [ C:\Open-Source-Programmable-Load\Electrical\Simulations\multi-stage programmable load-pspicefiles\s


 ****     MOSFET MODEL PARAMETERS


******************************************************************************




               X_M1.N_MOSFET   
               NMOS            
       LEVEL    1            
           L  100.000000E-06 
           W  100.000000E-06 
         VTO    2            
          KP  110            
       GAMMA    0            
         PHI     .6          
      LAMBDA    0            
          IS   10.000000E-15 
          JS    0            
          PB     .8          
        PBSW     .8          
          CJ    0            
        CJSW    0            
        CGSO    0            
        CGDO    0            
        CGBO    0            
         TOX  100.000000E-09 
          XJ    0            
       UCRIT   10.000000E+03 
      DIOMOD    1            
         VFB    0            
        LETA    0            
        WETA    0            
          U0    0            
        TEMP    0            
         VDD    5            
       XPART    0            


**** 12/31/22 00:34:48 ******* PSpice 17.4.0 (Nov 2018) ******* ID# 0 ********

 ** Profile: "SCHEMATIC1-bias"  [ C:\Open-Source-Programmable-Load\Electrical\Simulations\multi-stage programmable load-pspicefiles\s


 ****     Resistor MODEL PARAMETERS


******************************************************************************




               X_U3.R_NOISELESS 
  T_Measured   27            
   T_Current -273.15         
           R    1            


**** 12/31/22 00:34:48 ******* PSpice 17.4.0 (Nov 2018) ******* ID# 0 ********

 ** Profile: "SCHEMATIC1-bias"  [ C:\Open-Source-Programmable-Load\Electrical\Simulations\multi-stage programmable load-pspicefiles\s


 ****     Voltage Controlled Switch MODEL PARAMETERS


******************************************************************************




               X_M1.S_GATE_CHG_SW              X_U3.BB_SW      X_U3.ESD_SW     
         RON     .01                           50              50            
        ROFF  100.000000E+06                    1.000000E+12    1.000000E+12 
         VON    2.6                              .7              .25         
        VOFF    1.5                             0               0            


               X_U3.OL_SW      X_U3.OR_SW      
         RON    1.000000E-03     .01         
        ROFF    1.000000E+09    1.000000E+09 
         VON     .9             1.000000E-03 
        VOFF     .8             0            


               X_U3.S_VSWITCH_1 
         RON   50            
        ROFF    1.000000E+12 
         VON     .5          
        VOFF     .1          


               X_U3.S_VSWITCH_2 
         RON   50            
        ROFF    1.000000E+12 
         VON     .5          
        VOFF     .1          


               X_U3.S_VSWITCH_3 
         RON   50            
        ROFF    1.000000E+12 
         VON     .5          
        VOFF     .1          


               X_U3.S_VSWITCH_4 
         RON   50            
        ROFF    1.000000E+12 
         VON     .5          
        VOFF     .1          


               X_U3.S_VSWITCH_5 
         RON     .01         
        ROFF    1.000000E+12 
         VON     .01         
        VOFF    0            


               X_U3.S_VSWITCH_6 
         RON     .01         
        ROFF    1.000000E+12 
         VON     .01         
        VOFF    0            


               X_U3.S_VSWITCH_7 
         RON    1.000000E-03 
        ROFF    1.000000E+12 
         VON     .5          
        VOFF     .1          


               X_U3.S_VSWITCH_8 
         RON   50            
        ROFF    1.000000E+12 
         VON     .5          
        VOFF     .1          


               X_U3.S_VSWITCH_9 
         RON   50            
        ROFF    1.000000E+12 
         VON     .5          
        VOFF     .1          


WARNING(ORPSIM-15452): Pulse Period < (Rise Time + Fall Time + Pulse Width) for V_V8.

WARNING(ORPSIM-15452): Pulse Period < (Rise Time + Fall Time + Pulse Width) for V_V8.


          JOB CONCLUDED

**** 12/31/22 00:34:48 ******* PSpice 17.4.0 (Nov 2018) ******* ID# 0 ********

 ** Profile: "SCHEMATIC1-bias"  [ C:\Open-Source-Programmable-Load\Electrical\Simulations\multi-stage programmable load-pspicefiles\s


 ****     JOB STATISTICS SUMMARY


******************************************************************************



  License check-out time            =      213.63
  Total job time (using Solver 1)   =         .42
